Version 4
SHEET 1 1384 1016
WIRE 144 64 -400 64
WIRE 288 64 208 64
WIRE 368 64 288 64
WIRE 688 64 432 64
WIRE 720 64 688 64
WIRE 1168 64 800 64
WIRE 288 160 288 64
WIRE 688 160 688 64
WIRE 1168 160 1168 64
WIRE -400 272 -400 64
WIRE -272 272 -400 272
WIRE -400 336 -400 272
WIRE 288 368 288 240
WIRE 288 368 -176 368
WIRE 688 368 688 240
WIRE 688 368 288 368
WIRE 1168 368 1168 240
WIRE 1168 368 688 368
WIRE -400 448 -400 416
WIRE -400 448 -544 448
WIRE -400 496 -400 448
WIRE -176 496 -176 368
WIRE -176 496 -400 496
WIRE -544 528 -544 448
WIRE -272 592 -272 272
WIRE 128 592 -272 592
WIRE 288 592 208 592
WIRE 368 592 288 592
WIRE 688 592 448 592
WIRE 704 592 688 592
WIRE 1152 592 784 592
WIRE 288 672 288 592
WIRE 1152 704 1152 592
WIRE 688 736 688 592
WIRE -400 944 -400 496
WIRE 288 944 288 736
WIRE 288 944 -400 944
WIRE 688 944 688 816
WIRE 688 944 288 944
WIRE 1152 944 1152 784
WIRE 1152 944 688 944
FLAG -544 528 0
SYMBOL cap 208 48 R90
WINDOW 0 0 32 VBottom 2
WINDOW 3 32 32 VTop 2
SYMATTR InstName C1
SYMATTR Value .0000055
SYMATTR SpiceLine V=400
SYMBOL cap 272 672 R0
SYMATTR InstName C2
SYMATTR Value .0000104
SYMATTR SpiceLine V=400
SYMBOL cap 432 48 R90
WINDOW 0 0 32 VBottom 2
WINDOW 3 32 32 VTop 2
SYMATTR InstName C3
SYMATTR Value .0000156
SYMATTR SpiceLine V=400
SYMBOL ind 272 144 R0
SYMATTR InstName L1
SYMATTR Value 0.00038
SYMATTR SpiceLine Rser=0.13
SYMBOL ind 112 608 R270
WINDOW 0 32 56 VTop 2
WINDOW 3 5 56 VBottom 2
SYMATTR InstName L2
SYMATTR Value .00078
SYMATTR SpiceLine Rser=0.20
SYMBOL ind 352 608 R270
WINDOW 0 32 56 VTop 2
WINDOW 3 5 56 VBottom 2
SYMATTR InstName L3
SYMATTR Value .00025
SYMATTR SpiceLine Rser=.10
SYMBOL res 816 48 R90
WINDOW 0 0 56 VBottom 2
WINDOW 3 32 56 VTop 2
SYMATTR InstName R1
SYMATTR Value 2
SYMATTR SpiceLine pwr=25
SYMBOL res 672 144 R0
SYMATTR InstName R2
SYMATTR Value 25
SYMATTR SpiceLine pwr=25
SYMBOL res 800 576 R90
WINDOW 0 0 56 VBottom 2
WINDOW 3 32 56 VTop 2
SYMATTR InstName R3
SYMATTR Value 2
SYMATTR SpiceLine pwr=100
SYMBOL res 672 720 R0
SYMATTR InstName R4
SYMATTR Value 24
SYMATTR SpiceLine pwr=100
SYMBOL res 1152 144 R0
SYMATTR InstName R6
SYMATTR Value 8
SYMATTR SpiceLine pwr=100
SYMBOL res 1136 688 R0
SYMATTR InstName R7
SYMATTR Value 4
SYMATTR SpiceLine pwr=400
SYMBOL voltage -400 320 R0
WINDOW 123 24 124 Left 2
WINDOW 39 0 0 Left 2
SYMATTR Value2 AC 1
SYMATTR InstName V1
SYMATTR Value ""
TEXT 1168 112 Left 2 !.ac oct 100 1 20000
